Version 4
SHEET 1 1336 932
WIRE 208 -32 48 -32
WIRE 48 0 48 -32
WIRE 208 16 208 -32
WIRE 48 112 48 80
WIRE 208 128 208 96
WIRE 304 128 208 128
WIRE 336 128 304 128
WIRE 608 128 416 128
WIRE 208 160 208 128
WIRE 608 224 608 128
WIRE 304 256 304 128
WIRE 208 304 208 224
WIRE 304 368 304 336
WIRE 528 368 304 368
WIRE 304 400 304 368
WIRE 304 544 304 480
WIRE -352 640 -448 640
WIRE -192 640 -272 640
WIRE -112 640 -192 640
WIRE 80 640 -32 640
WIRE 272 640 80 640
WIRE 528 640 528 368
WIRE 528 640 336 640
WIRE 656 640 528 640
WIRE 800 640 736 640
WIRE 864 640 800 640
WIRE 1008 640 944 640
WIRE -448 656 -448 640
WIRE 80 672 80 640
WIRE 800 688 800 640
WIRE 1008 704 1008 640
WIRE -192 752 -192 640
WIRE -448 768 -448 736
WIRE 80 800 80 736
WIRE 800 848 800 768
WIRE -192 912 -192 832
FLAG 208 304 0
FLAG 608 224 0
FLAG 48 112 0
FLAG 304 544 0
FLAG -448 768 0
FLAG 80 800 0
FLAG 1008 704 0
FLAG 800 848 0
FLAG -192 912 0
SYMBOL zener 224 224 R180
WINDOW 0 24 64 Left 2
WINDOW 3 24 0 Left 2
SYMATTR InstName D1
SYMATTR Value MyZenner
SYMBOL res 192 0 R0
SYMATTR InstName R1
SYMATTR Value 150
SYMBOL res 432 112 R90
WINDOW 0 0 56 VBottom 2
WINDOW 3 32 56 VTop 2
SYMATTR InstName R_ADC_REF
SYMATTR Value 1Meg
SYMBOL voltage 48 -16 R0
WINDOW 123 0 0 Left 0
WINDOW 39 0 0 Left 0
SYMATTR InstName V1
SYMATTR Value 5
SYMBOL res 288 240 R0
SYMATTR InstName R2
SYMATTR Value 100k
SYMBOL res 288 384 R0
SYMATTR InstName R3
SYMATTR Value 100k
SYMBOL cap 336 624 R90
WINDOW 0 0 32 VBottom 2
WINDOW 3 32 32 VTop 2
SYMATTR InstName C1
SYMATTR Value 1200µ
SYMBOL voltage -448 640 R0
WINDOW 123 24 124 Left 2
WINDOW 39 0 0 Left 0
SYMATTR Value2 AC 3.3 0
SYMATTR InstName V2
SYMATTR Value SINE(0 1 1k)
SYMBOL res -16 624 R90
WINDOW 0 0 56 VBottom 2
WINDOW 3 32 56 VTop 2
SYMATTR InstName R6
SYMATTR Value 1k
SYMBOL cap 64 672 R0
SYMATTR InstName C2
SYMATTR Value 6.8n
SYMBOL res 960 624 R90
WINDOW 0 0 56 VBottom 2
WINDOW 3 32 56 VTop 2
SYMATTR InstName R7
SYMATTR Value 1Meg
SYMBOL res -256 624 R90
WINDOW 0 0 56 VBottom 2
WINDOW 3 32 56 VTop 2
SYMATTR InstName R8
SYMATTR Value 60
SYMBOL res 752 624 R90
WINDOW 0 0 56 VBottom 2
WINDOW 3 32 56 VTop 2
SYMATTR InstName R4
SYMATTR Value 100k
SYMBOL res 816 784 R180
WINDOW 0 36 76 Left 2
WINDOW 3 36 40 Left 2
SYMATTR InstName R5
SYMATTR Value 100k
SYMBOL res -208 736 R0
SYMATTR InstName R9
SYMATTR Value 100k
TEXT -744 -408 Left 2 !.model MyZenner D(Is=.88f Rs=.25 Cjo=175p M=.55 nbv=1.7 bv=3.3 Vj=.75 Isr=1.86n Nr=2 Ibv=20.245m Ibvl=1.96m Nbvl=15 Tbv1=-21.3u Vpk=4.7 mfg=OnSemi type=Zener)
TEXT -744 -312 Left 2 !.ac dec 10 20 40k
