Version 4
SHEET 1 1336 996
WIRE 208 -32 48 -32
WIRE 48 0 48 -32
WIRE 208 16 208 -32
WIRE 48 112 48 80
WIRE 208 128 208 96
WIRE 304 128 208 128
WIRE 336 128 304 128
WIRE 608 128 416 128
WIRE 208 160 208 128
WIRE 608 224 608 128
WIRE 304 256 304 128
WIRE 208 304 208 224
WIRE 304 368 304 336
WIRE 528 368 304 368
WIRE 304 400 304 368
WIRE 304 544 304 480
WIRE -432 576 -512 576
WIRE -256 576 -352 576
WIRE -688 640 -784 640
WIRE -592 640 -608 640
WIRE -512 640 -512 576
WIRE -512 640 -592 640
WIRE -256 640 -256 576
WIRE -176 640 -256 640
WIRE -112 640 -176 640
WIRE 80 640 -32 640
WIRE 272 640 80 640
WIRE 528 640 528 368
WIRE 528 640 336 640
WIRE 864 640 528 640
WIRE 1008 640 944 640
WIRE -784 656 -784 640
WIRE 80 672 80 640
WIRE -512 704 -512 640
WIRE -432 704 -512 704
WIRE -256 704 -256 640
WIRE -256 704 -352 704
WIRE -176 704 -176 640
WIRE 1008 704 1008 640
WIRE -784 768 -784 736
WIRE 80 800 80 736
WIRE -176 832 -176 784
WIRE -592 848 -592 640
WIRE -592 976 -592 928
FLAG 208 304 0
FLAG 608 224 0
FLAG 48 112 0
FLAG 304 544 0
FLAG -784 768 0
FLAG 80 800 0
FLAG 1008 704 0
FLAG -176 832 0
FLAG -592 976 0
SYMBOL zener 224 224 R180
WINDOW 0 24 64 Left 2
WINDOW 3 24 0 Left 2
SYMATTR InstName D1
SYMATTR Value Z3.3
SYMBOL res 192 0 R0
SYMATTR InstName R1
SYMATTR Value 150
SYMBOL res 432 112 R90
WINDOW 0 0 56 VBottom 2
WINDOW 3 32 56 VTop 2
SYMATTR InstName R_ADC_REF
SYMATTR Value 1Meg
SYMBOL voltage 48 -16 R0
WINDOW 123 0 0 Left 0
WINDOW 39 0 0 Left 0
SYMATTR InstName V1
SYMATTR Value 5
SYMBOL res 288 240 R0
SYMATTR InstName R2
SYMATTR Value 100k
SYMBOL res 288 384 R0
SYMATTR InstName R3
SYMATTR Value 100k
SYMBOL cap 336 624 R90
WINDOW 0 0 32 VBottom 2
WINDOW 3 32 32 VTop 2
SYMATTR InstName C1
SYMATTR Value 1µ
SYMBOL voltage -784 640 R0
WINDOW 123 24 124 Left 2
WINDOW 39 0 0 Left 0
SYMATTR Value2 AC 3.3 0
SYMATTR InstName V2
SYMATTR Value SINE(0 1 1k)
SYMBOL res -16 624 R90
WINDOW 0 0 56 VBottom 2
WINDOW 3 32 56 VTop 2
SYMATTR InstName R6
SYMATTR Value 500
SYMBOL cap 64 672 R0
SYMATTR InstName C2
SYMATTR Value 6.8n
SYMBOL res 960 624 R90
WINDOW 0 0 56 VBottom 2
WINDOW 3 32 56 VTop 2
SYMATTR InstName R7
SYMATTR Value 1Meg
SYMBOL res -592 624 R90
WINDOW 0 0 56 VBottom 2
WINDOW 3 32 56 VTop 2
SYMATTR InstName R8
SYMATTR Value 1
SYMBOL res -192 688 R0
SYMATTR InstName R4
SYMATTR Value 100k
SYMBOL res -608 832 R0
SYMATTR InstName R5
SYMATTR Value 16
SYMBOL res -336 560 R90
WINDOW 0 0 56 VBottom 2
WINDOW 3 32 56 VTop 2
SYMATTR InstName R9
SYMATTR Value 1k
SYMBOL res -336 688 R90
WINDOW 0 0 56 VBottom 2
WINDOW 3 32 56 VTop 2
SYMATTR InstName R10
SYMATTR Value 1k
TEXT -744 -408 Left 2 !.model Z3.3 D(Is=.88f Rs=.25 Cjo=175p M=.55 nbv=1.7 bv=3.3 Vj=.75 Isr=1.86n Nr=2 Ibv=20.245m Ibvl=1.96m Nbvl=15 Tbv1=-21.3u Vpk=4.7 mfg=OnSemi type=Zener)
TEXT -744 -216 Left 2 !.ac dec 10 20 100k
TEXT -728 -152 Left 2 !;.tran 1 startup
TEXT -688 496 Left 2 ;Emulate "left" and "right" audio channels using resistors
TEXT -152 800 Left 2 ;pull-down resistor
